<?xml version="1.0" encoding="UTF-8"?>
<!-- generated on 2021-03-19 14:16:17.943339 by randomTrips.py v1_5_0+0000-3a3be608d2
  options: -n net.net.xml -o flows.xml <doubleminus>begin 0 <doubleminus>end 1 <doubleminus>flows 100 <doubleminus>jtrrouter <doubleminus>trip-attributes departPos="random" departSpeed="max"
-->
<routes xmlns:xsi="http://www.w3.org/2001/XMLSchema-instance" xsi:noNamespaceSchemaLocation="http://sumo.dlr.de/xsd/routes_file.xsd">
    <flow id="0" begin="0.0" end="3600" period="100" from="G3G4" departPos="random" departSpeed="max"/>
    <flow id="1" begin="0.0" end="3600" period="100" from="G2F2" departPos="random" departSpeed="max"/>
    <flow id="2" begin="0.0" end="3600" period="100" from="H4G4" departPos="random" departSpeed="max"/>
    <flow id="3" begin="0.0" end="3600" period="100" from="E8E7" departPos="random" departSpeed="max"/>
    <flow id="4" begin="0.0" end="3600" period="100" from="B5C5" departPos="random" departSpeed="max"/>
    <flow id="5" begin="0.0" end="3600" period="100" from="G9F9" departPos="random" departSpeed="max"/>
    <flow id="6" begin="0.0" end="3600" period="100" from="J2J1" departPos="random" departSpeed="max"/>
    <flow id="7" begin="0.0" end="3600" period="100" from="E6D6" departPos="random" departSpeed="max"/>
    <flow id="8" begin="0.0" end="3600" period="100" from="G4G5" departPos="random" departSpeed="max"/>
    <flow id="9" begin="0.0" end="3600" period="100" from="A3A4" departPos="random" departSpeed="max"/>
    <flow id="10" begin="0.0" end="3600" period="100" from="H2H1" departPos="random" departSpeed="max"/>
    <flow id="11" begin="0.0" end="3600" period="100" from="A2A3" departPos="random" departSpeed="max"/>
    <flow id="12" begin="0.0" end="3600" period="100" from="J4I4" departPos="random" departSpeed="max"/>
    <flow id="13" begin="0.0" end="3600" period="100" from="I2I1" departPos="random" departSpeed="max"/>
    <flow id="14" begin="0.0" end="3600" period="100" from="A3A4" departPos="random" departSpeed="max"/>
    <flow id="15" begin="0.0" end="3600" period="100" from="H6H5" departPos="random" departSpeed="max"/>
    <flow id="16" begin="0.0" end="3600" period="100" from="G6G7" departPos="random" departSpeed="max"/>
    <flow id="17" begin="0.0" end="3600" period="100" from="A4A3" departPos="random" departSpeed="max"/>
    <flow id="18" begin="0.0" end="3600" period="100" from="J4J5" departPos="random" departSpeed="max"/>
    <flow id="19" begin="0.0" end="3600" period="100" from="G8G7" departPos="random" departSpeed="max"/>
    <flow id="20" begin="0.0" end="3600" period="100" from="F3G3" departPos="random" departSpeed="max"/>
    <flow id="21" begin="0.0" end="3600" period="100" from="I3I4" departPos="random" departSpeed="max"/>
    <flow id="22" begin="0.0" end="3600" period="100" from="E2D2" departPos="random" departSpeed="max"/>
    <flow id="23" begin="0.0" end="3600" period="100" from="F5E5" departPos="random" departSpeed="max"/>
    <flow id="24" begin="0.0" end="3600" period="100" from="I2J2" departPos="random" departSpeed="max"/>
    <flow id="25" begin="0.0" end="3600" period="100" from="H6I6" departPos="random" departSpeed="max"/>
    <flow id="26" begin="0.0" end="3600" period="100" from="D4D3" departPos="random" departSpeed="max"/>
    <flow id="27" begin="0.0" end="3600" period="100" from="F5F4" departPos="random" departSpeed="max"/>
    <flow id="28" begin="0.0" end="3600" period="100" from="C5C6" departPos="random" departSpeed="max"/>
    <flow id="29" begin="0.0" end="3600" period="100" from="C4C3" departPos="random" departSpeed="max"/>
    <flow id="30" begin="0.0" end="3600" period="100" from="E9D9" departPos="random" departSpeed="max"/>
    <flow id="31" begin="0.0" end="3600" period="100" from="C2D2" departPos="random" departSpeed="max"/>
    <flow id="32" begin="0.0" end="3600" period="100" from="F5E5" departPos="random" departSpeed="max"/>
    <flow id="33" begin="0.0" end="3600" period="100" from="F8F9" departPos="random" departSpeed="max"/>
    <flow id="34" begin="0.0" end="3600" period="100" from="D4D5" departPos="random" departSpeed="max"/>
    <flow id="35" begin="0.0" end="3600" period="100" from="J1I1" departPos="random" departSpeed="max"/>
    <flow id="36" begin="0.0" end="3600" period="100" from="A8B8" departPos="random" departSpeed="max"/>
    <flow id="37" begin="0.0" end="3600" period="100" from="F2E2" departPos="random" departSpeed="max"/>
    <flow id="38" begin="0.0" end="3600" period="100" from="I5H5" departPos="random" departSpeed="max"/>
    <flow id="39" begin="0.0" end="3600" period="100" from="C8D8" departPos="random" departSpeed="max"/>
    <flow id="40" begin="0.0" end="3600" period="100" from="G2G1" departPos="random" departSpeed="max"/>
    <flow id="41" begin="0.0" end="3600" period="100" from="B6B7" departPos="random" departSpeed="max"/>
    <flow id="42" begin="0.0" end="3600" period="100" from="H0G0" departPos="random" departSpeed="max"/>
    <flow id="43" begin="0.0" end="3600" period="100" from="G1G2" departPos="random" departSpeed="max"/>
    <flow id="44" begin="0.0" end="3600" period="100" from="G7H7" departPos="random" departSpeed="max"/>
    <flow id="45" begin="0.0" end="3600" period="100" from="G0H0" departPos="random" departSpeed="max"/>
    <flow id="46" begin="0.0" end="3600" period="100" from="E2E1" departPos="random" departSpeed="max"/>
    <flow id="47" begin="0.0" end="3600" period="100" from="F8E8" departPos="random" departSpeed="max"/>
    <flow id="48" begin="0.0" end="3600" period="100" from="D1C1" departPos="random" departSpeed="max"/>
    <flow id="49" begin="0.0" end="3600" period="100" from="C9C8" departPos="random" departSpeed="max"/>
    <flow id="50" begin="0.0" end="3600" period="100" from="D7E7" departPos="random" departSpeed="max"/>
    <flow id="51" begin="0.0" end="3600" period="100" from="H2G2" departPos="random" departSpeed="max"/>
    <flow id="52" begin="0.0" end="3600" period="100" from="C0B0" departPos="random" departSpeed="max"/>
    <flow id="53" begin="0.0" end="3600" period="100" from="B3A3" departPos="random" departSpeed="max"/>
    <flow id="54" begin="0.0" end="3600" period="100" from="E4E5" departPos="random" departSpeed="max"/>
    <flow id="55" begin="0.0" end="3600" period="100" from="I8H8" departPos="random" departSpeed="max"/>
    <flow id="56" begin="0.0" end="3600" period="100" from="B5A5" departPos="random" departSpeed="max"/>
    <flow id="57" begin="0.0" end="3600" period="100" from="I8I9" departPos="random" departSpeed="max"/>
    <flow id="58" begin="0.0" end="3600" period="100" from="F5G5" departPos="random" departSpeed="max"/>
    <flow id="59" begin="0.0" end="3600" period="100" from="E0E1" departPos="random" departSpeed="max"/>
    <flow id="60" begin="0.0" end="3600" period="100" from="A3B3" departPos="random" departSpeed="max"/>
    <flow id="61" begin="0.0" end="3600" period="100" from="G6H6" departPos="random" departSpeed="max"/>
    <flow id="62" begin="0.0" end="3600" period="100" from="A5B5" departPos="random" departSpeed="max"/>
    <flow id="63" begin="0.0" end="3600" period="100" from="F7E7" departPos="random" departSpeed="max"/>
    <flow id="64" begin="0.0" end="3600" period="100" from="A7A8" departPos="random" departSpeed="max"/>
    <flow id="65" begin="0.0" end="3600" period="100" from="B5B6" departPos="random" departSpeed="max"/>
    <flow id="66" begin="0.0" end="3600" period="100" from="A1A0" departPos="random" departSpeed="max"/>
    <flow id="67" begin="0.0" end="3600" period="100" from="C9D9" departPos="random" departSpeed="max"/>
    <flow id="68" begin="0.0" end="3600" period="100" from="C6B6" departPos="random" departSpeed="max"/>
    <flow id="69" begin="0.0" end="3600" period="100" from="A6B6" departPos="random" departSpeed="max"/>
    <flow id="70" begin="0.0" end="3600" period="100" from="H7H8" departPos="random" departSpeed="max"/>
    <flow id="71" begin="0.0" end="3600" period="100" from="C2C1" departPos="random" departSpeed="max"/>
    <flow id="72" begin="0.0" end="3600" period="100" from="H5G5" departPos="random" departSpeed="max"/>
    <flow id="73" begin="0.0" end="3600" period="100" from="E5E6" departPos="random" departSpeed="max"/>
    <flow id="74" begin="0.0" end="3600" period="100" from="B6C6" departPos="random" departSpeed="max"/>
    <flow id="75" begin="0.0" end="3600" period="100" from="G6G7" departPos="random" departSpeed="max"/>
    <flow id="76" begin="0.0" end="3600" period="100" from="D3C3" departPos="random" departSpeed="max"/>
    <flow id="77" begin="0.0" end="3600" period="100" from="H9I9" departPos="random" departSpeed="max"/>
    <flow id="78" begin="0.0" end="3600" period="100" from="H3I3" departPos="random" departSpeed="max"/>
    <flow id="79" begin="0.0" end="3600" period="100" from="A3A2" departPos="random" departSpeed="max"/>
    <flow id="80" begin="0.0" end="3600" period="100" from="J6I6" departPos="random" departSpeed="max"/>
    <flow id="81" begin="0.0" end="3600" period="100" from="C7D7" departPos="random" departSpeed="max"/>
    <flow id="82" begin="0.0" end="3600" period="100" from="C6C7" departPos="random" departSpeed="max"/>
    <flow id="83" begin="0.0" end="3600" period="100" from="D2D1" departPos="random" departSpeed="max"/>
    <flow id="84" begin="0.0" end="3600" period="100" from="I4H4" departPos="random" departSpeed="max"/>
    <flow id="85" begin="0.0" end="3600" period="100" from="F4F3" departPos="random" departSpeed="max"/>
    <flow id="86" begin="0.0" end="3600" period="100" from="D2E2" departPos="random" departSpeed="max"/>
    <flow id="87" begin="0.0" end="3600" period="100" from="D3E3" departPos="random" departSpeed="max"/>
    <flow id="88" begin="0.0" end="3600" period="100" from="D1D2" departPos="random" departSpeed="max"/>
    <flow id="89" begin="0.0" end="3600" period="100" from="D5E5" departPos="random" departSpeed="max"/>
    <flow id="90" begin="0.0" end="3600" period="100" from="F7G7" departPos="random" departSpeed="max"/>
    <flow id="91" begin="0.0" end="3600" period="100" from="G4H4" departPos="random" departSpeed="max"/>
    <flow id="92" begin="0.0" end="3600" period="100" from="E0F0" departPos="random" departSpeed="max"/>
    <flow id="93" begin="0.0" end="3600" period="100" from="I3H3" departPos="random" departSpeed="max"/>
    <flow id="94" begin="0.0" end="3600" period="100" from="D4E4" departPos="random" departSpeed="max"/>
    <flow id="95" begin="0.0" end="3600" period="100" from="H5G5" departPos="random" departSpeed="max"/>
    <flow id="96" begin="0.0" end="3600" period="100" from="I7J7" departPos="random" departSpeed="max"/>
    <flow id="97" begin="0.0" end="3600" period="100" from="B6C6" departPos="random" departSpeed="max"/>
    <flow id="98" begin="0.0" end="3600" period="100" from="A7A8" departPos="random" departSpeed="max"/>
    <flow id="99" begin="0.0" end="3600" period="100" from="I0J0" departPos="random" departSpeed="max"/>
</routes>
