<?xml version="1.0"?>

<!--
// Copyright (C) 2011 Christoph Sommer <sommer@ccs-labs.org>
//
// Documentation for these modules is at http://veins.car2x.org/
//
// SPDX-License-Identifier: (GPL-2.0-or-later OR CC-BY-SA-4.0)
//
// This program is free software; you can redistribute it and/or modify
// it under the terms of the GNU General Public License as published by
// the Free Software Foundation; either version 2 of the License, or
// (at your option) any later version.
//
// This program is distributed in the hope that it will be useful,
// but WITHOUT ANY WARRANTY; without even the implied warranty of
// MERCHANTABILITY or FITNESS FOR A PARTICULAR PURPOSE.  See the
// GNU General Public License for more details.
//
// You should have received a copy of the GNU General Public License
// along with this program; if not, write to the Free Software
// Foundation, Inc., 59 Temple Place, Suite 330, Boston, MA  02111-1307  USA
//
// -
//
// At your option, you can also redistribute and/or modify this file
// under a
// Creative Commons Attribution-ShareAlike 4.0 International License.
//
// You should have received a copy of the license along with this
// work.  If not, see <http://creativecommons.org/licenses/by-sa/4.0/>.
-->

<!--

-->

<routes>

<vType id="vtype0" length="2.5" minGap="2.5" maxSpeed="14" sigma= "0.5" color="1,1,0"/>

<!-- Left to right-->
<route id="route0" edges="A1B1 B1C1 C1D1"/>
<flow id="flow0" type="vtype0" route="route0" begin="0" period="10" number="1"/>

<!-- right to left
<route id="route1" edges="D1C1 C1B1 B1A1"/>
<flow id="flow1" type="vtype0" route="route1" begin="0" period="10" number="10"/>

-->

<!-- first top to right-->
<route id="route2" edges="B2B1 B1C1 C1D1"/>
<flow id="flow2" type="vtype0" route="route2" begin="0" period="10" number="1"/>



<!-- first top to bottom
<route id="route3" edges="B2B1 B1B0"/>
<flow id="flow3" type="vtype0" route="route3" begin="0" period="10" number="10"/>

-->



</routes>
